57

C       0.6463235732368200       -2.0121434875705000        7.9548525857571004
C      -0.3171992161823900       -2.8800771977698001        7.2191715785886998
C       5.3192336539065996       -2.5153772618458001        7.0005155459562998
C       4.5120221208186004       -3.4205188491262000        6.3029297425640003
C       2.9789912934671001        1.6498697331101999        7.3261512604255996
C       2.0155093514089999        2.7210763753367999        6.9420681100259003
C       0.6528687573482800        2.7279374025393999        7.3675080398674000
C      -0.1544611930894800        3.7846816246168000        6.9322833830287003
C      -1.6871012717898000        0.3632953354006100       10.8121233319879995
C      -2.6506643434769002        0.1603236824936900       11.9316265635030003
C       2.9857216063147001       -0.2114632410207000       11.7249731293200004
C       2.1784423099650998       -0.3629152341626000       12.8577835895509995
C       1.6856032703821999        9.5451136391467006        5.0915805403015000
C       2.6490560697014001       10.4130473493459998        5.8272615474698997
C      -2.9873768003876999       10.0483474134220003        6.0459175801022997
C      -2.1801419276242999       10.9533383590470006        6.7435033834946001
C      -0.6471344560343000        5.8831004226559998        5.7205427916862996
C       0.3163708256992000        4.8117431387743004        6.1046259420859004
C       1.6790347369291001        4.8049574344943000        5.6793164752710998
C       2.4862946972668998        3.7482132124167999        6.1145411321098004
C       4.0189814553179000        7.1692982183226999        2.2347011831507002
C       4.9824978701604996        7.3723451899621999        1.1150674886092999
C      -0.6538880635449800        7.7441321092865003        1.3214599967384999
C       0.1534378896491800        7.8955087836958002        0.1887799995340700
H       3.4703070669236999       -3.1578780081734998        6.1232821548940004
H      -1.1962149578451000        3.8088647074807001        7.2496999268201998
H       1.1366898501602001       -0.6498144767116401       12.7201450964559992
H      -1.1384268737293000       10.6906975180939998        6.9231509711644996
H       3.5280951349532002        3.7239548066303998        5.7969941252916000
H       1.1951436765232999        8.1824833491674998        0.3265489556556900
O       0.1910542547125000       -0.9142592650083500        8.4430452314077993
O       1.8646335491592001       -2.3701414851068998        8.0729216248575000
O       4.7571126424186003       -1.3478223987932001        7.4186495463064999
O       2.5240042894489001        0.6780164434842100        8.0328694756820003
O       4.1974901060251000        1.7267663712412999        6.9570713580883998
O       0.0908593476917760        1.7820713298988000        8.1695947275905993
O      -2.1420951345104000        0.2369631149640600        9.6169515450273995
O      -0.4687004274455700        0.6445473364611600       11.0631341952240003
O       2.4238371913900001       -0.4332273543553100       10.5046219782199994
O       2.1408026052264000        8.4470034561967999        4.6035183576775003
O       0.4672233107796800        9.9028856762953001        4.9736419642277001
O      -2.4252557824797001        8.8805665899815995        5.6279140427787002
O      -0.1921007726654200        6.8546524289716002        5.0138245764298004
O      -1.8656332685923001        5.8062037845249996        6.0896226940234000
O       2.2409974897409999        5.7508988258673996        4.8770993245212004
O       4.4739520169554003        7.2955551116465998        3.4294815810312000
O       2.8005339541290999        6.8881215359947001        1.9835598568874000
O      -0.0919803089449420        7.9657455809659004        2.5418111478385002
Zn      -1.3893688113560001        0.4866969113883700        7.7445461868290000
Zn       0.9435376173419801        0.5824594054423800        9.5954251456333992
Zn       3.2766752071588998       -1.0682100588129999        8.7530253826814004
Zn       3.7212489884641999        7.0461226027226997        5.3021478652827998
Zn       1.3883658994415000        6.9502094670135000        3.4512689064785000
Zn      -0.9448183472200100        8.6009542500015002        4.2935382064037997
C       0.9904155426905600        3.1789687710916001        2.9782798008632998
O       0.9070116665176600        4.3329664358041002        2.7601847773057999
O       1.0698941199004000        2.0241893823496002        3.1847615187875999