4

Al       0.0000000000000000        0.0000000000000000        0.0000000000000000
Al       0.0000000000000000        2.0247899999999999        2.0247899999999999
Al       2.0247899999999999        0.0000000000000000        2.0247899999999999
Al       2.0247899999999999        2.0247899999999999        0.0000000000000000