4

Al       0.0000000000059944        0.0000000000059943        0.0000000000059939
Al       0.0000000000057205        2.0247899999992001        2.0247899999992001
Al       2.0247899999992001        0.0000000000057189        2.0247899999992001
Al       2.0247899999992001        2.0247899999992001        0.0000000000057170