4

Al       0.0000000000059965        0.0000000000059936        0.0000000000060044
Al       0.0000000000057232        2.0247899999992001        2.0247899999992001
Al       2.0247899999992001        0.0000000000057206        2.0247899999992001
Al       2.0247899999992001        2.0247899999992001        0.0000000000057093